@<TRIPOS>MOLECULE
geometry
 10 9 0 0 0
SMALL
GASTEIGER

@<TRIPOS>ATOM
      1 C          -1.2959    0.3195   -0.5441 C.2     1  UNL1        0.4217
      2 N          -2.5765    0.0330   -0.4428 N.am    1  UNL1       -0.1968
      3 O          -0.7859    1.1658   -1.3459 O.2     1  UNL1       -0.2246
      4 O           1.6519   -1.5301   -0.6983 O.2     1  UNL1       -0.5083
      5 O           1.5926    1.0481   -0.3271 O.3     1  UNL1       -0.3345
      6 O           1.7326   -0.5188    1.7175 O.3     1  UNL1       -0.4274
      7 O          -0.4376   -0.3652    0.3545 O.3     1  UNL1       -0.3952
      8 P           1.2630   -0.4458    0.2830 P.3     1  UNL1        0.2703
      9 H          -2.6354   -0.6962    0.2765 H       1  UNL1        0.1763
     10 H           0.7561    1.2653   -0.8533 H       1  UNL1        0.2185
@<TRIPOS>BOND
     1     3     1    2
     2    10     5    1
     3     4     8    2
     4     1     2   am
     5     1     7    1
     6     2     9    1
     7     5     8    1
     8     8     7    1
     9     8     6    1
