@<TRIPOS>MOLECULE
FFQKYPRQEYGKAF-UHFFFAOYSA-L	Mulliken Charges
 10 9 0 0 0
SMALL
GASTEIGER

@<TRIPOS>ATOM
      1 C          -1.2960    0.3202   -0.5435 C.2     1  UNL1        0.4217
      2 N          -2.5764    0.0320   -0.4437 N.am    1  UNL1       -0.1968
      3 O          -0.7863    1.1677   -1.3445 O.2     1  UNL1       -0.2246
      4 O           1.6502   -1.5310   -0.6977 O.2     1  UNL1       -0.5083
      5 O           1.5933    1.0475   -0.3282 O.3     1  UNL1       -0.3345
      6 O           1.7340   -0.5180    1.7175 O.3     1  UNL1       -0.4274
      7 O          -0.4376   -0.3640    0.3556 O.3     1  UNL1       -0.3952
      8 P           1.2628   -0.4459    0.2833 P.3     1  UNL1        0.2703
      9 H          -2.6355   -0.6980    0.2748 H       1  UNL1        0.1763
     10 H           0.7564    1.2650   -0.8537 H       1  UNL1        0.2185
@<TRIPOS>BOND
     1     3     1    2
     2    10     5    1
     3     4     8    2
     4     1     2   am
     5     1     7    1
     6     2     9    1
     7     5     8    1
     8     8     7    1
     9     8     6    1
